216
 energy: -285.983329301881 gnorm: 0.000371434109 xtb: 6.4.1 (conda-forge)
C        -5.06455698948681    0.93640908398236    0.21020623636955
C        -5.47870791522690    1.82382428470898   -0.76868585781909
C        -5.16645307329898    1.57950515295519   -2.09569813046604
C        -4.44582792465424    0.44873030649971   -2.44265017181662
C        -4.03103166035564   -0.43621658556623   -1.46141501126021
C        -4.33719515409940   -0.19071160199540   -0.13366544404727
H        -5.48250380233900    2.27748719719749   -2.85850916164074
H        -1.42156061619026    0.59651117277974   -1.47291495358274
C        -0.60997072968787   -0.07538708048153   -1.23496835505218
C        -0.30463742361837   -1.13897817590782   -2.06722200046671
C         0.73088253731752   -1.99880773934868   -1.74358600935237
C         1.46761894421980   -1.79058357210189   -0.59110269474087
C         1.16214953846432   -0.72712282785213    0.24217478792931
C         0.12225140405281    0.12879564436004   -0.07746564766516
H         0.96176978694649   -2.83293354982583   -2.38749493143254
H        -0.19410884138180   -2.61031528914645    1.92926711363749
C        -1.02120981077779   -3.28261905460770    1.75309193976321
C        -1.91432728155142   -3.01500506320697    0.72882105774097
C        -2.97418849160945   -3.87387773161434    0.49356940459292
C        -3.13998076666722   -5.00212641323946    1.27970099712005
C        -2.24874790022551   -5.26744792478122    2.30516621656232
C        -1.18981766796037   -4.40656177179645    2.54315765255635
H        -0.12685414783018    0.95705659925224    0.56988506406409
H         0.91415150877045    4.25738698721599    1.28312907688482
C         0.08657501497311    3.93892151109426    0.66470291305092
C        -1.05541839247555    3.42127527749498    1.25303350563062
C        -2.11657056429936    3.01372222495789    0.46364697871116
C        -2.03757387727204    3.12842083758437   -0.91344446163501
C        -0.89581105375902    3.64370127175541   -1.50105836387285
C         0.16729464126201    4.04673045010904   -0.71268284370588
H         2.27901024303673   -2.45781688563057   -0.33964493351153
C         2.49597451300528   -1.70864449927176   -4.70136977095797
C         2.49442985702473   -3.02707542853943   -5.12471155647080
C         3.27525656846416   -3.96609436002985   -4.47136557754373
C         4.05677159356808   -3.58593883750644   -3.39322722227387
C         4.05318992529302   -2.26866567149722   -2.96654025831119
C         3.27418416118670   -1.33014242560205   -3.62048212288227
H         1.73875213820482   -0.56831438668122    1.14239750682012
H        -0.60251124156147    1.33954509396240   -3.86595027277094
C         0.34861110695650    1.60008962024415   -4.30532103928195
C         0.47657905468654    1.69863954218964   -5.68080552710419
C         1.44056756548762    1.83598722547665   -3.48765414652769
C         2.66158443568822    2.17127238463979   -4.04821896552353
C         2.79147397568097    2.26813071486511   -5.42374199385863
C         1.69875802199295    2.03201815244259   -6.24099184230089
H        -5.30908398700543    1.12521008626763    1.24628884729679
H        -6.04210762229656    2.70572490928074   -0.50278445669707
H        -4.20287543083761    0.25939140813186   -3.47927518024697
H        -3.46547838685991   -1.31697356191980   -1.73035922284496
H        -4.00253072063843   -0.87560941304892    0.63251461155045
H        -0.87545033321263   -1.30285766395112   -2.97035515489750
H        -1.77265358648570   -2.13570491693397    0.11798402743673
H        -3.67385579390623   -3.67710289909653   -0.30610691156086
H        -3.96367605026117   -5.67389654660770    1.08560836156381
H        -2.37951666126515   -6.14726813696077    2.91926138570584
H        -0.49497193044801   -4.61184186926377    3.34532835119619
H        -1.11839108228845    3.33525993411746    2.32871046663114
H        -3.00864755443467    2.60813825653474    0.91676325477901
H        -2.87407005888364    2.81945298121107   -1.52285743993481
H        -0.82630530893205    3.73759655205111   -2.57447487814837
H         1.05389135026325    4.44679878541873   -1.18038419403776
H         1.88961341647119   -0.97077966408685   -5.20638372973725
H         1.88611847965272   -3.32459909825286   -5.96727409385665
H         3.27276527281856   -4.99538366816438   -4.79997566462490
H         4.66873733628789   -4.31621546880598   -2.88337401976792
H         4.65283713529859   -1.97737389341586   -2.11667169937215
H         3.26685855957005   -0.30302685634856   -3.28987595373076
H        -0.37631099266819    1.51502739691694   -6.31917259602755
H         1.33875533263584    1.75625192479083   -2.41576132455841
H         3.51386818193004    2.35465227443138   -3.41073580445382
H         3.74497630722830    2.52881042035388   -5.85987067866890
H         1.79943306493001    2.10823514421036   -7.31425578273448
H        -7.85826222830527    0.38611436987491   -0.06390473266977
C        -8.75597881587816    0.32100643021121   -0.66089333644659
C        -9.97067732606209    0.02246920138851   -0.06961649528536
C       -11.11329514364211   -0.07472112036589   -0.84526567170902
C       -11.04181815949794    0.13210901604299   -2.21197677758829
C        -9.82649670253977    0.43253462552643   -2.80300806268098
C        -8.68366290412117    0.52210887276689   -2.02821114330809
H       -10.02699793732980   -0.13874839802403    0.99746033803601
H       -12.06109870806674   -0.31672345454072   -0.38545863252414
H       -11.93448023754159    0.05578333801819   -2.81657041841624
H        -9.77079645746691    0.59115605832485   -3.87083077039620
H        -7.72858378534580    0.73881406573960   -2.48367355332884
H        -8.26156577533916    3.25280814115039   -2.36301880118067
C        -8.21313387915657    4.09924036527184   -1.69406041007144
C        -8.52047910786182    3.92745642871391   -0.35508166254711
C        -8.47258042354796    5.00772461228364    0.50808948213757
C        -8.11437118578987    6.25890845763626    0.03428718439170
C        -7.80354301392395    6.42936373434764   -1.30305442186844
C        -7.85351361364645    5.34864253920577   -2.16754484123575
H        -8.80439268657170    2.94986748183914    0.00643374425222
H        -8.71590534516994    4.87516607743358    1.55254055933877
H        -8.07491061597149    7.10175851606115    0.70885581010964
H        -7.51981619872025    7.40450731372546   -1.67137443983776
H        -7.61380618446864    5.48331776825559   -3.21305042971558
H        -1.86289724792587    6.69213080550198    1.85444426495314
C        -2.56196787112257    6.37250452281063    1.09519419198186
C        -3.78360304997311    5.83340433820833    1.46115811899518
C        -4.67786431531785    5.42073253957674    0.48925867337141
C        -4.35122281015463    5.54901059541546   -0.84966319877472
C        -3.13020221917739    6.08811701270628   -1.21470940324211
C        -2.23482267520483    6.50034228433068   -0.24289448566187
H        -4.03840323798203    5.73387587471768    2.50664225981833
H        -5.63356499463908    5.00433505635140    0.77227690905475
H        -5.05376958061826    5.22786201734680   -1.60467738634427
H        -2.86923540975578    6.18372080341072   -2.25851756653285
H        -1.27801314928574    6.91000791334540   -0.53087030903242
H         1.07546108992043    4.60080548464840   -4.75604245119179
C         1.10009802837278    5.42418250642990   -4.05763846788754
C         2.22436707630686    5.62984450579027   -3.27588994382921
C         2.25987198948133    6.68400499212544   -2.37839091183687
C         1.17118455610421    7.53149741123765   -2.26098448698084
C         0.04690038743981    7.32607208938271   -3.04252782811379
C         0.01207422422717    6.27212202419905   -3.93959096224985
H         3.06976443334020    4.96354498931815   -3.36523354185879
H         3.13752119064427    6.84525225305742   -1.76853706073333
H         1.19953533282002    8.35449469705221   -1.56095058393135
H        -0.80071553418898    7.99055934274561   -2.95430421075264
H        -0.86439233764794    6.11230602820496   -4.55135817035586
H         3.13023702215340   -8.78024475323201   -0.84492111021474
C         2.60921711222614   -7.85730553973893   -0.63330828723677
C         1.73790897883736   -7.78444865436283    0.44018867783832
C         1.06792671498008   -6.60342549722734    0.70844088140362
C         1.27029352117013   -5.49312260755251   -0.09296268452399
C         2.14505015961933   -5.56474297619671   -1.16254788944258
C         2.81119643749799   -6.74690558588313   -1.43446311140044
H         1.58027704921195   -8.65091372981160    1.06668052261144
H         0.38025057186423   -6.54570706871101    1.53965930722226
H         0.74233103231054   -4.57397004425059    0.11367941314285
H         2.30729078502218   -4.69987958151780   -1.78747748014026
H         3.48939186209986   -6.80328949266173   -2.27403827992202
H         5.78193979599602    0.38847091855768   -1.83869618114389
C         5.25005807822634    1.25156003615006   -1.46468904985341
C         4.02941979425326    1.09244423558243   -0.82956282157528
C         3.34455438407661    2.20161531149532   -0.36215142065262
C         3.88043960833747    3.46761194373097   -0.52828569872992
C         5.10079176657421    3.62629960574808   -1.16321660203289
C         5.78619846753982    2.51768334193587   -1.63181938963810
H         3.60710286480955    0.10661145485636   -0.70235135908974
H         2.38875761869449    2.07813891173438    0.12568809984463
H         3.34657308619086    4.33287696165235   -0.16330233644097
H         5.51878763039113    4.61422303086644   -1.29506006157883
H         6.73721571537200    2.64112202586287   -2.13010676043298
H         6.23952223185638   -3.25843951971437   -0.41035214004715
C         5.49465964493713   -3.02948549525754    0.33881023534635
C         4.59387468300866   -4.00237128955330    0.73821569429325
C         3.64788571877419   -3.71311386554571    1.70737096221246
C         3.60327539012226   -2.45118328073970    2.27594002389338
C         4.49877008903286   -1.47549119770053    1.87019541323609
C         5.44520757057675   -1.76498270916859    0.90218209892397
H         4.62170283308758   -4.98737682298552    0.29578599897720
H         2.94425485778870   -4.47389293661848    2.01189627728824
H         2.86835529751077   -2.22873074011608    3.03666155995531
H         4.46251690213075   -0.48744609804576    2.30670670540127
H         6.14387048444210   -1.00222542424076    0.58968522701132
H         0.77346597268493   -6.27610027444498   -4.94268204888222
C         0.19295547475771   -6.26624460513244   -4.03128949821980
C         0.01365946832003   -7.43453510051298   -3.31134716317678
C        -0.73383404287073   -7.42141203135057   -2.14663929641443
C        -1.29697143559139   -6.23995892998988   -1.69855948985831
C        -1.11593703173096   -5.07153557641165   -2.41745049102124
C        -0.37290258516843   -5.08451750443812   -3.58489316203044
H         0.45725681723773   -8.35671421841943   -3.65854366720178
H        -0.87401253805285   -8.33254559861613   -1.58392648393554
H        -1.87856091878124   -6.22592031231400   -0.78921127332920
H        -1.55073711444765   -4.15046949095934   -2.05901261522741
H        -0.23059335074166   -4.17369223501822   -4.14958795190904
H        -3.49068942695187   -8.16177935747693   -3.37958576754622
C        -4.09457907781253   -7.50711243759539   -2.76860259101576
C        -4.72200847252205   -7.99597372887780   -1.63672055767641
C        -5.49483504722363   -7.15472517184228   -0.85488095868853
C        -5.64143316968015   -5.82454540077293   -1.20594782926185
C        -5.00898609223230   -5.33535044021622   -2.33582632487442
C        -4.23639296035990   -6.17526778371172   -3.11728509238073
H        -4.61197510493839   -9.03553921848735   -1.36390031154314
H        -5.99065596908843   -7.53930742792493    0.02502484160282
H        -6.25323210140433   -5.16671606965001   -0.60554665698931
H        -5.13193815423351   -4.29770913248545   -2.60965793235924
H        -3.73999856820176   -5.79482522981489   -3.99811008603152
H        -6.09729917029615   -2.34731097596789   -0.12467522430046
C        -7.00451940212020   -2.53518555059849   -0.68021837956013
C        -8.13906118730456   -2.98455469772515   -0.02727317813751
C        -9.30407462520514   -3.21150840798821   -0.73948910667695
C        -9.33299513426664   -2.99710510642889   -2.10636787859976
C        -8.19734780230011   -2.55060564316795   -2.75937292800266
C        -7.03509049342588   -2.31559428724069   -2.04615510183269
H        -8.11618838785175   -3.15457055764125    1.03981208641031
H       -10.19296818917299   -3.55190498363548   -0.22763937198142
H       -10.24190767326696   -3.17542339846611   -2.66232418177592
H        -8.22155664718492   -2.37887263470456   -3.82607528121951
H        -6.15386071903698   -1.94665325651493   -2.55058985414782
H        -6.93624074099340   -9.32271505905457   -4.09823212313841
C        -7.45859901603674   -8.57544914459752   -3.51868559901312
C        -8.13732777589257   -8.94058628544021   -2.36916476192435
C        -8.80382508977730   -7.98199530383240   -1.62512371941475
C        -8.78994682777876   -6.65890026871250   -2.03026578820723
C        -8.11134340315325   -6.29420351558143   -3.18003911480997
C        -7.44734606181221   -7.25250240190696   -3.92517189499056
H        -8.14625417763265   -9.97355066102203   -2.05199275132257
H        -9.33379103496880   -8.26753780596912   -0.72753253283674
H        -9.30169393900721   -5.90544030022041   -1.44959855550653
H        -8.09781674315825   -5.25905016126943   -3.48750739482931
H        -6.91451480531318   -6.96784737319722   -4.82058307567468
H       -11.46711519532974    2.90663316666566   -2.48628149958137
C       -11.53027987372112    3.73082605653204   -1.79118292375953
C       -11.82155975123325    3.48528001101877   -0.46083950431307
C       -11.89536696243827    4.53627205260313    0.43654940264038
C       -11.67441466515671    5.83260793289631    0.00414984224343
C       -11.38221676191590    6.07803588536495   -1.32612482078468
C       -11.31147297230128    5.02705291961874   -2.22379876740350
H       -11.98431827342169    2.47109405515952   -0.12657513082511
H       -12.12337178623481    4.34521101946371    1.47545736229175
H       -11.72882641649194    6.65319277744389    0.70489881682397
H       -11.20665108982070    7.08934940529695   -1.66289703233257
H       -11.08228510952183    5.21940209842617   -3.26188972810569
